<?xml version="1.0" encoding="UTF-8"?>

<!-- generated on 2022-02-28 20:02:04 by Eclipse SUMO netedit Version 1.9.2
<configuration xmlns:xsi="http://www.w3.org/2001/XMLSchema-instance" xsi:noNamespaceSchemaLocation="http://sumo.dlr.de/xsd/netconvertConfiguration.xsd">

    <input>
        <sumo-net-file value="D:\SUMO\sumo-1.9.2\file\caogao\venv\single_route.net.xml"/>
    </input>

    <output>
        <output-file value="D:\SUMO\sumo-1.9.2\file\caogao\venv\single_route.net.xml"/>
    </output>

    <processing>
        <geometry.min-radius.fix.railways value="false"/>
        <geometry.max-grade.fix value="false"/>
        <offset.disable-normalization value="true"/>
        <lefthand value="false"/>
    </processing>

    <junctions>
        <no-turnarounds value="true"/>
        <junctions.corner-detail value="5"/>
        <junctions.limit-turn-speed value="5.5"/>
        <rectangular-lane-cut value="false"/>
    </junctions>

    <pedestrian>
        <walkingareas value="false"/>
    </pedestrian>

    <report>
        <aggregate-warnings value="5"/>
    </report>

</configuration>
-->

<net version="1.9" junctionCornerDetail="5" limitTurnSpeed="5.50" xmlns:xsi="http://www.w3.org/2001/XMLSchema-instance" xsi:noNamespaceSchemaLocation="http://sumo.dlr.de/xsd/net_file.xsd">

    <location netOffset="0.00,0.00" convBoundary="0.00,0.00,200.00,200.00" origBoundary="-10000000000.00,-10000000000.00,10000000000.00,10000000000.00" projParameter="!"/>

    <edge id=":gneJ5_0" function="internal">
        <lane id=":gneJ5_0_0" index="0" speed="13.89" length="14.40" shape="98.40,107.20 98.40,92.80"/>
    </edge>
    <edge id=":gneJ5_1" function="internal">
        <lane id=":gneJ5_1_0" index="0" speed="13.89" length="14.40" shape="107.20,101.60 92.80,101.60"/>
    </edge>
    <edge id=":gneJ5_2" function="internal">
        <lane id=":gneJ5_2_0" index="0" speed="13.89" length="14.40" shape="101.60,92.80 101.60,107.20"/>
    </edge>
    <edge id=":gneJ5_3" function="internal">
        <lane id=":gneJ5_3_0" index="0" speed="13.89" length="14.40" shape="92.80,98.40 107.20,98.40"/>
    </edge>

    <edge id="-gneE0" from="gneJ5" to="gneJ0" priority="-1" length="89.60">
        <lane id="-gneE0_0" index="0" speed="13.89" length="89.60" shape="92.80,101.60 0.00,101.60"/>
    </edge>
    <edge id="-gneE1" from="gneJ2" to="gneJ5" priority="-1" length="89.60">
        <lane id="-gneE1_0" index="0" speed="13.89" length="89.60" shape="200.00,101.60 107.20,101.60"/>
    </edge>
    <edge id="-gneE2" from="gneJ3" to="gneJ5" priority="-1" length="89.60">
        <lane id="-gneE2_0" index="0" speed="13.89" length="89.60" shape="98.40,200.00 98.40,107.20"/>
    </edge>
    <edge id="-gneE3" from="gneJ4" to="gneJ5" priority="-1" length="89.60">
        <lane id="-gneE3_0" index="0" speed="13.89" length="89.60" shape="101.60,0.00 101.60,92.80"/>
    </edge>
    <edge id="gneE0" from="gneJ0" to="gneJ5" priority="-1" length="89.60">
        <lane id="gneE0_0" index="0" speed="13.89" length="89.60" shape="0.00,98.40 92.80,98.40"/>
    </edge>
    <edge id="gneE1" from="gneJ5" to="gneJ2" priority="-1" length="89.60">
        <lane id="gneE1_0" index="0" speed="13.89" length="89.60" shape="107.20,98.40 200.00,98.40"/>
    </edge>
    <edge id="gneE2" from="gneJ5" to="gneJ3" priority="-1" length="89.60">
        <lane id="gneE2_0" index="0" speed="13.89" length="89.60" shape="101.60,107.20 101.60,200.00"/>
    </edge>
    <edge id="gneE3" from="gneJ5" to="gneJ4" priority="-1" length="89.60">
        <lane id="gneE3_0" index="0" speed="13.89" length="89.60" shape="98.40,92.80 98.40,0.00"/>
    </edge>

    <tlLogic id="gneJ5" type="static" programID="0" offset="0">
        <phase duration="20" state="GGgrrrGGgrrr"/>
        <phase duration="20" state="rrrGGgrrrGGg"/>
    </tlLogic>

    <junction id="gneJ0" type="dead_end" x="0.00" y="100.00" incLanes="-gneE0_0" intLanes="" shape="0.00,100.00 0.00,103.20 0.00,100.00"/>
    <junction id="gneJ2" type="dead_end" x="200.00" y="100.00" incLanes="gneE1_0" intLanes="" shape="200.00,100.00 200.00,96.80 200.00,100.00"/>
    <junction id="gneJ3" type="dead_end" x="100.00" y="200.00" incLanes="gneE2_0" intLanes="" shape="100.00,200.00 103.20,200.00 100.00,200.00"/>
    <junction id="gneJ4" type="dead_end" x="100.00" y="0.00" incLanes="gneE3_0" intLanes="" shape="100.00,0.00 96.80,0.00 100.00,0.00"/>
    <junction id="gneJ5" type="traffic_light" x="100.00" y="100.00" incLanes="-gneE2_0 -gneE1_0 -gneE3_0 gneE0_0" intLanes=":gneJ5_0_0 :gneJ5_1_0 :gneJ5_2_0 :gneJ5_3_0" shape="96.80,107.20 103.20,107.20 103.64,104.98 104.20,104.20 104.98,103.64 105.98,103.31 107.20,103.20 107.20,96.80 104.98,96.36 104.20,95.80 103.64,95.02 103.31,94.02 103.20,92.80 96.80,92.80 96.36,95.02 95.80,95.80 95.02,96.36 94.02,96.69 92.80,96.80 92.80,103.20 95.02,103.64 95.80,104.20 96.36,104.98 96.69,105.98">
        <request index="0" response="0000" foes="1010" cont="0"/>
        <request index="1" response="0101" foes="0101" cont="0"/>
        <request index="2" response="0000" foes="1010" cont="0"/>
        <request index="3" response="0101" foes="0101" cont="0"/>
    </junction>

    <connection from="-gneE1" to="-gneE0" fromLane="0" toLane="0" via=":gneJ5_1_0" tl="gneJ5" linkIndex="1" dir="s" state="o"/>
    <connection from="-gneE2" to="gneE3" fromLane="0" toLane="0" via=":gneJ5_0_0" tl="gneJ5" linkIndex="10" dir="s" state="O"/>
    <connection from="-gneE3" to="gneE2" fromLane="0" toLane="0" via=":gneJ5_2_0" tl="gneJ5" linkIndex="4" dir="s" state="O"/>
    <connection from="gneE0" to="gneE1" fromLane="0" toLane="0" via=":gneJ5_3_0" tl="gneJ5" linkIndex="7" dir="s" state="o"/>

    <connection from=":gneJ5_0" to="gneE3" fromLane="0" toLane="0" dir="s" state="M"/>
    <connection from=":gneJ5_1" to="-gneE0" fromLane="0" toLane="0" dir="s" state="M"/>
    <connection from=":gneJ5_2" to="gneE2" fromLane="0" toLane="0" dir="s" state="M"/>
    <connection from=":gneJ5_3" to="gneE1" fromLane="0" toLane="0" dir="s" state="M"/>

</net>
